<routes>
    <flow id="-gneE0_2" from="-gneE0" departlane="best" departPos="17" begin="0" end="3600" number="23"/>
    <flow id="-gneE1_2" from="-gneE1" departlane="best" departPos="81" begin="0" end="3600" number="19"/>
    <flow id="-gneE2_2" from="gneE38" departlane="best" departPos="base" begin="0" end="3600" number="26"/>
    <flow id="-gneE3_2" from="-gneE3" departlane="best" departPos="20" begin="0" end="3600" number="22"/>
</routes>
