<?xml version="1.0" encoding="UTF-8"?>

<!-- generated on 11/29/22 10:40:22 by Eclipse SUMO jtrrouter Version 1.8.0
<configuration xmlns:xsi="http://www.w3.org/2001/XMLSchema-instance" xsi:noNamespaceSchemaLocation="http://sumo.dlr.de/xsd/jtrrouterConfiguration.xsd">

    <input>
        <net-file value="./IKSAN/net/IKSAN.net.xml"/>
        <route-files value="./IKSAN/rou/clus.flow.xml"/>
        <turn-ratio-files value="./IKSAN/rou/clus.turn.xml"/>
    </input>

    <output>
        <output-file value="./IKSAN/rou/clus.rou.xml"/>
    </output>

    <processing>
        <no-internal-links value="true"/>
        <randomize-flows value="true"/>
    </processing>

</configuration>
-->

<routes xmlns:xsi="http://www.w3.org/2001/XMLSchema-instance" xsi:noNamespaceSchemaLocation="http://sumo.dlr.de/xsd/routes_file.xsd">
    <vehicle id="-gneE0_2.0" depart="9.74" departPos="17.00">
        <route edges="-gneE0 gneE1"/>
    </vehicle>
    <vehicle id="-gneE3_2.0" depart="18.13" departPos="20.00">
        <route edges="-gneE3 gneE1"/>
    </vehicle>
    <vehicle id="-gneE1_2.0" depart="18.39" departPos="81.00">
        <route edges="-gneE1 gneE3"/>
    </vehicle>
    <vehicle id="-gneE0_2.1" depart="55.65" departPos="17.00">
        <route edges="-gneE0 gneE1"/>
    </vehicle>
    <vehicle id="-gneE2_2.0" depart="163.02" departPos="base">
        <route edges="gneE38 -gneE2 gneE1"/>
    </vehicle>
    <vehicle id="-gneE3_2.1" depart="238.38" departPos="20.00">
        <route edges="-gneE3 gneE2"/>
    </vehicle>
    <vehicle id="-gneE2_2.1" depart="345.66" departPos="base">
        <route edges="gneE38 -gneE2 gneE3"/>
    </vehicle>
    <vehicle id="-gneE2_2.2" depart="352.32" departPos="base">
        <route edges="gneE38 -gneE2 gneE3"/>
    </vehicle>
    <vehicle id="-gneE0_2.2" depart="381.92" departPos="17.00">
        <route edges="-gneE0 gneE1"/>
    </vehicle>
    <vehicle id="-gneE0_2.3" depart="400.80" departPos="17.00">
        <route edges="-gneE0 gneE3"/>
    </vehicle>
    <vehicle id="-gneE1_2.1" depart="401.49" departPos="81.00">
        <route edges="-gneE1 gneE2"/>
    </vehicle>
    <vehicle id="-gneE3_2.2" depart="433.87" departPos="20.00">
        <route edges="-gneE3 gneE1"/>
    </vehicle>
    <vehicle id="-gneE3_2.3" depart="436.43" departPos="20.00">
        <route edges="-gneE3 gneE0"/>
    </vehicle>
    <vehicle id="-gneE0_2.4" depart="476.94" departPos="17.00">
        <route edges="-gneE0 gneE1"/>
    </vehicle>
    <vehicle id="-gneE3_2.4" depart="542.30" departPos="20.00">
        <route edges="-gneE3 gneE2"/>
    </vehicle>
    <vehicle id="-gneE2_2.3" depart="596.97" departPos="base">
        <route edges="gneE38 -gneE2 gneE3"/>
    </vehicle>
    <vehicle id="-gneE2_2.4" depart="628.79" departPos="base">
        <route edges="gneE38 -gneE2 gneE3"/>
    </vehicle>
    <vehicle id="-gneE0_2.5" depart="654.29" departPos="17.00">
        <route edges="-gneE0 gneE1"/>
    </vehicle>
    <vehicle id="-gneE2_2.5" depart="666.67" departPos="base">
        <route edges="gneE38 -gneE2 gneE1"/>
    </vehicle>
    <vehicle id="-gneE2_2.6" depart="674.42" departPos="base">
        <route edges="gneE38 -gneE2 gneE0"/>
    </vehicle>
    <vehicle id="-gneE2_2.7" depart="724.95" departPos="base">
        <route edges="gneE38 -gneE2 gneE1"/>
    </vehicle>
    <vehicle id="-gneE0_2.6" depart="754.69" departPos="17.00">
        <route edges="-gneE0 gneE2"/>
    </vehicle>
    <vehicle id="-gneE1_2.2" depart="759.41" departPos="81.00">
        <route edges="-gneE1 gneE2"/>
    </vehicle>
    <vehicle id="-gneE1_2.3" depart="764.28" departPos="81.00">
        <route edges="-gneE1 gneE0"/>
    </vehicle>
    <vehicle id="-gneE3_2.5" depart="785.27" departPos="20.00">
        <route edges="-gneE3 gneE2"/>
    </vehicle>
    <vehicle id="-gneE1_2.4" depart="819.88" departPos="81.00">
        <route edges="-gneE1 gneE2"/>
    </vehicle>
    <vehicle id="-gneE2_2.8" depart="842.52" departPos="base">
        <route edges="gneE38 -gneE2 gneE3"/>
    </vehicle>
    <vehicle id="-gneE2_2.9" depart="869.60" departPos="base">
        <route edges="gneE38 -gneE2 gneE0"/>
    </vehicle>
    <vehicle id="-gneE1_2.5" depart="912.02" departPos="81.00">
        <route edges="-gneE1 gneE3"/>
    </vehicle>
    <vehicle id="-gneE3_2.6" depart="972.03" departPos="20.00">
        <route edges="-gneE3 gneE2"/>
    </vehicle>
    <vehicle id="-gneE3_2.7" depart="984.39" departPos="20.00">
        <route edges="-gneE3 gneE1"/>
    </vehicle>
    <vehicle id="-gneE0_2.7" depart="1006.16" departPos="17.00">
        <route edges="-gneE0 gneE3"/>
    </vehicle>
    <vehicle id="-gneE1_2.6" depart="1086.27" departPos="81.00">
        <route edges="-gneE1 gneE0"/>
    </vehicle>
    <vehicle id="-gneE3_2.8" depart="1118.06" departPos="20.00">
        <route edges="-gneE3 gneE1"/>
    </vehicle>
    <vehicle id="-gneE2_2.10" depart="1146.71" departPos="base">
        <route edges="gneE38 -gneE2 gneE1"/>
    </vehicle>
    <vehicle id="-gneE0_2.8" depart="1164.16" departPos="17.00">
        <route edges="-gneE0 gneE1"/>
    </vehicle>
    <vehicle id="-gneE2_2.11" depart="1217.35" departPos="base">
        <route edges="gneE38 -gneE2 gneE1"/>
    </vehicle>
    <vehicle id="-gneE3_2.9" depart="1282.42" departPos="20.00">
        <route edges="-gneE3 gneE2"/>
    </vehicle>
    <vehicle id="-gneE0_2.9" depart="1283.82" departPos="17.00">
        <route edges="-gneE0 gneE1"/>
    </vehicle>
    <vehicle id="-gneE1_2.7" depart="1372.68" departPos="81.00">
        <route edges="-gneE1 gneE2"/>
    </vehicle>
    <vehicle id="-gneE3_2.10" depart="1446.55" departPos="20.00">
        <route edges="-gneE3 gneE2"/>
    </vehicle>
    <vehicle id="-gneE0_2.10" depart="1479.95" departPos="17.00">
        <route edges="-gneE0 gneE1"/>
    </vehicle>
    <vehicle id="-gneE0_2.11" depart="1517.65" departPos="17.00">
        <route edges="-gneE0 gneE1"/>
    </vehicle>
    <vehicle id="-gneE1_2.8" depart="1580.77" departPos="81.00">
        <route edges="-gneE1 gneE3"/>
    </vehicle>
    <vehicle id="-gneE3_2.11" depart="1583.17" departPos="20.00">
        <route edges="-gneE3 gneE2"/>
    </vehicle>
    <vehicle id="-gneE2_2.12" depart="1600.23" departPos="base">
        <route edges="gneE38 -gneE2 gneE3"/>
    </vehicle>
    <vehicle id="-gneE1_2.9" depart="1641.35" departPos="81.00">
        <route edges="-gneE1 gneE2"/>
    </vehicle>
    <vehicle id="-gneE0_2.12" depart="1648.05" departPos="17.00">
        <route edges="-gneE0 gneE3"/>
    </vehicle>
    <vehicle id="-gneE2_2.13" depart="1650.73" departPos="base">
        <route edges="gneE38 -gneE2 gneE1"/>
    </vehicle>
    <vehicle id="-gneE2_2.14" depart="1651.42" departPos="base">
        <route edges="gneE38 -gneE2 gneE0"/>
    </vehicle>
    <vehicle id="-gneE1_2.10" depart="1672.50" departPos="81.00">
        <route edges="-gneE1 gneE0"/>
    </vehicle>
    <vehicle id="-gneE1_2.11" depart="1720.77" departPos="81.00">
        <route edges="-gneE1 gneE0"/>
    </vehicle>
    <vehicle id="-gneE3_2.12" depart="1752.65" departPos="20.00">
        <route edges="-gneE3 gneE1"/>
    </vehicle>
    <vehicle id="-gneE3_2.13" depart="1763.21" departPos="20.00">
        <route edges="-gneE3 gneE1"/>
    </vehicle>
    <vehicle id="-gneE3_2.14" depart="1811.61" departPos="20.00">
        <route edges="-gneE3 gneE2"/>
    </vehicle>
    <vehicle id="-gneE0_2.13" depart="1817.33" departPos="17.00">
        <route edges="-gneE0 gneE2"/>
    </vehicle>
    <vehicle id="-gneE0_2.14" depart="1847.70" departPos="17.00">
        <route edges="-gneE0 gneE1"/>
    </vehicle>
    <vehicle id="-gneE2_2.15" depart="1848.48" departPos="base">
        <route edges="gneE38 -gneE2 gneE0"/>
    </vehicle>
    <vehicle id="-gneE3_2.15" depart="1943.63" departPos="20.00">
        <route edges="-gneE3 gneE1"/>
    </vehicle>
    <vehicle id="-gneE2_2.16" depart="1997.36" departPos="base">
        <route edges="gneE38 -gneE2 gneE3"/>
    </vehicle>
    <vehicle id="-gneE1_2.12" depart="2015.92" departPos="81.00">
        <route edges="-gneE1 gneE0"/>
    </vehicle>
    <vehicle id="-gneE1_2.13" depart="2039.96" departPos="81.00">
        <route edges="-gneE1 gneE0"/>
    </vehicle>
    <vehicle id="-gneE2_2.17" depart="2072.59" departPos="base">
        <route edges="gneE38 -gneE2 gneE0"/>
    </vehicle>
    <vehicle id="-gneE3_2.16" depart="2116.75" departPos="20.00">
        <route edges="-gneE3 gneE0"/>
    </vehicle>
    <vehicle id="-gneE2_2.18" depart="2122.82" departPos="base">
        <route edges="gneE38 -gneE2 gneE0"/>
    </vehicle>
    <vehicle id="-gneE1_2.14" depart="2149.52" departPos="81.00">
        <route edges="-gneE1 gneE0"/>
    </vehicle>
    <vehicle id="-gneE2_2.19" depart="2239.54" departPos="base">
        <route edges="gneE38 -gneE2 gneE1"/>
    </vehicle>
    <vehicle id="-gneE2_2.20" depart="2248.33" departPos="base">
        <route edges="gneE38 -gneE2 gneE0"/>
    </vehicle>
    <vehicle id="-gneE1_2.15" depart="2259.21" departPos="81.00">
        <route edges="-gneE1 gneE3"/>
    </vehicle>
    <vehicle id="-gneE1_2.16" depart="2300.46" departPos="81.00">
        <route edges="-gneE1 gneE0"/>
    </vehicle>
    <vehicle id="-gneE3_2.17" depart="2313.27" departPos="20.00">
        <route edges="-gneE3 gneE2"/>
    </vehicle>
    <vehicle id="-gneE0_2.15" depart="2394.64" departPos="17.00">
        <route edges="-gneE0 gneE2"/>
    </vehicle>
    <vehicle id="-gneE0_2.16" depart="2416.14" departPos="17.00">
        <route edges="-gneE0 gneE3"/>
    </vehicle>
    <vehicle id="-gneE2_2.21" depart="2436.32" departPos="base">
        <route edges="gneE38 -gneE2 gneE0"/>
    </vehicle>
    <vehicle id="-gneE0_2.17" depart="2488.08" departPos="17.00">
        <route edges="-gneE0 gneE2"/>
    </vehicle>
    <vehicle id="-gneE0_2.18" depart="2507.60" departPos="17.00">
        <route edges="-gneE0 gneE1"/>
    </vehicle>
    <vehicle id="-gneE0_2.19" depart="2762.03" departPos="17.00">
        <route edges="-gneE0 gneE2"/>
    </vehicle>
    <vehicle id="-gneE0_2.20" depart="2852.53" departPos="17.00">
        <route edges="-gneE0 gneE2"/>
    </vehicle>
    <vehicle id="-gneE0_2.21" depart="2898.98" departPos="17.00">
        <route edges="-gneE0 gneE2"/>
    </vehicle>
    <vehicle id="-gneE1_2.17" depart="2901.62" departPos="81.00">
        <route edges="-gneE1 gneE0"/>
    </vehicle>
    <vehicle id="-gneE0_2.22" depart="2950.16" departPos="17.00">
        <route edges="-gneE0 gneE2"/>
    </vehicle>
    <vehicle id="-gneE3_2.18" depart="3001.37" departPos="20.00">
        <route edges="-gneE3 gneE0"/>
    </vehicle>
    <vehicle id="-gneE2_2.22" depart="3074.88" departPos="base">
        <route edges="gneE38 -gneE2 gneE0"/>
    </vehicle>
    <vehicle id="-gneE2_2.23" depart="3179.37" departPos="base">
        <route edges="gneE38 -gneE2 gneE3"/>
    </vehicle>
    <vehicle id="-gneE2_2.24" depart="3181.59" departPos="base">
        <route edges="gneE38 -gneE2 gneE1"/>
    </vehicle>
    <vehicle id="-gneE3_2.19" depart="3363.45" departPos="20.00">
        <route edges="-gneE3 gneE0"/>
    </vehicle>
    <vehicle id="-gneE3_2.20" depart="3367.17" departPos="20.00">
        <route edges="-gneE3 gneE2"/>
    </vehicle>
    <vehicle id="-gneE3_2.21" depart="3381.69" departPos="20.00">
        <route edges="-gneE3 gneE1"/>
    </vehicle>
    <vehicle id="-gneE2_2.25" depart="3451.08" departPos="base">
        <route edges="gneE38 -gneE2 gneE1"/>
    </vehicle>
    <vehicle id="-gneE1_2.18" depart="3565.79" departPos="81.00">
        <route edges="-gneE1 gneE0"/>
    </vehicle>
</routes>
