<?xml version="1.0" encoding="UTF-8"?>
<configuration xmlns:xsi="http://www.w3.org/2001/XMLSchema-instance" xsi:noNamespaceSchemaLocation="http://sumo.dir.de/xsd/sumoConfiguration.xsd">
    <input>
        <net-file value="../net/IKSAN.net.xml"/>
        <route-files value="../rou/clus.rou.xml"/>
        <additional-files value="../add/its3.xml"/>
    </input>
    <gui_only>
        <registry-viewport value="true"/>
    </gui_only>
</configuration>
