<additional>
    <edgeData id="IKSAN" file="edgeWaitingtimeclus.xml" edges="-gneE0 -gneE3 -gneE1 -gneE2"/>
</additional>
