<?xml version="1.0" encoding="UTF-8"?>

<!-- generated on 10/13/22 17:13:16 by Eclipse SUMO netedit Version 1.8.0
<configuration xmlns:xsi="http://www.w3.org/2001/XMLSchema-instance" xsi:noNamespaceSchemaLocation="http://sumo.dlr.de/xsd/netconvertConfiguration.xsd">

    <input>
        <sumo-net-file value="C:\Users\jkb92\simulation-server\IKSAN\net\IKSAN.net.xml"/>
    </input>

    <output>
        <output-file value="C:\Users\jkb92\simulation-server\IKSAN\net\IKSAN.net.xml"/>
    </output>

    <processing>
        <geometry.min-radius.fix.railways value="false"/>
        <geometry.max-grade.fix value="false"/>
        <offset.disable-normalization value="true"/>
        <lefthand value="false"/>
    </processing>

    <junctions>
        <no-internal-links value="false"/>
        <no-turnarounds value="true"/>
        <junctions.corner-detail value="5"/>
        <junctions.limit-turn-speed value="5.5"/>
        <rectangular-lane-cut value="false"/>
    </junctions>

    <pedestrian>
        <walkingareas value="false"/>
    </pedestrian>

    <report>
        <aggregate-warnings value="5"/>
    </report>

</configuration>
-->

<net version="1.6" junctionCornerDetail="5" limitTurnSpeed="5.50" xmlns:xsi="http://www.w3.org/2001/XMLSchema-instance" xsi:noNamespaceSchemaLocation="http://sumo.dlr.de/xsd/net_file.xsd">

    <location netOffset="0.00,0.00" convBoundary="4.37,-247.59,5055.74,793.42" origBoundary="-10000000000.00,-10000000000.00,10000000000.00,10000000000.00" projParameter="!"/>

    <edge id=":1.Sindong396-7_0" function="internal">
        <lane id=":1.Sindong396-7_0_0" index="0" speed="11.71" length="17.99" shape="227.69,666.38 220.62,668.53 215.38,671.23 211.97,674.48"/>
    </edge>
    <edge id=":1.Sindong396-7_1" function="internal">
        <lane id=":1.Sindong396-7_1_0" index="0" speed="13.89" length="40.07" shape="226.96,663.26 215.10,665.66 206.80,666.42 198.44,666.35 186.46,666.24"/>
        <lane id=":1.Sindong396-7_1_1" index="1" speed="13.89" length="40.07" shape="226.23,660.14 214.62,662.50 206.53,663.24 198.33,663.15 186.43,663.04"/>
        <lane id=":1.Sindong396-7_1_2" index="2" speed="13.89" length="40.07" shape="225.50,657.03 214.10,659.34 206.14,660.05 198.09,659.95 186.40,659.84"/>
    </edge>
    <edge id=":1.Sindong396-7_4" function="internal">
        <lane id=":1.Sindong396-7_4_0" index="0" speed="11.00" length="31.46" shape="224.77,653.91 214.70,654.66 207.68,651.59 203.94,644.92 203.80,638.87"/>
    </edge>
    <edge id=":1.Sindong396-7_20" function="internal">
        <lane id=":1.Sindong396-7_20_0" index="0" speed="11.71" length="4.11" shape="211.97,674.48 210.39,678.28"/>
    </edge>
    <edge id=":1.Sindong396-7_21" function="internal">
        <lane id=":1.Sindong396-7_21_0" index="0" speed="11.00" length="4.05" shape="203.80,638.87 203.70,634.82"/>
    </edge>
    <edge id=":1.Sindong396-7_5" function="internal">
        <lane id=":1.Sindong396-7_5_0" index="0" speed="5.87" length="4.78" shape="216.53,636.55 216.54,639.20 217.44,640.89 217.64,640.97"/>
    </edge>
    <edge id=":1.Sindong396-7_6" function="internal">
        <lane id=":1.Sindong396-7_6_0" index="0" speed="13.89" length="42.05" shape="213.35,636.12 207.23,677.77"/>
        <lane id=":1.Sindong396-7_6_1" index="1" speed="13.89" length="42.05" shape="210.18,635.70 204.08,677.26"/>
    </edge>
    <edge id=":1.Sindong396-7_8" function="internal">
        <lane id=":1.Sindong396-7_8_0" index="0" speed="13.07" length="31.24" shape="207.01,635.27 204.50,645.96 200.23,653.61 194.20,658.24 190.39,659.02"/>
    </edge>
    <edge id=":1.Sindong396-7_22" function="internal">
        <lane id=":1.Sindong396-7_22_0" index="0" speed="5.87" length="4.34" shape="217.64,640.97 219.20,641.62 221.84,641.38"/>
    </edge>
    <edge id=":1.Sindong396-7_23" function="internal">
        <lane id=":1.Sindong396-7_23_0" index="0" speed="13.07" length="4.08" shape="190.39,659.02 186.40,659.84"/>
    </edge>
    <edge id=":1.Sindong396-7_9" function="internal">
        <lane id=":1.Sindong396-7_9_0" index="0" speed="9.06" length="12.43" shape="186.25,643.85 190.62,643.19 193.92,641.33 196.17,638.25 196.28,637.85"/>
    </edge>
    <edge id=":1.Sindong396-7_10" function="internal">
        <lane id=":1.Sindong396-7_10_0" index="0" speed="13.89" length="37.23" shape="186.28,647.05 197.13,647.16 204.60,647.26 211.99,646.62 222.57,644.50"/>
        <lane id=":1.Sindong396-7_10_1" index="1" speed="13.89" length="37.23" shape="186.31,650.25 197.37,650.35 204.99,650.44 212.51,649.78 223.30,647.61"/>
        <lane id=":1.Sindong396-7_10_2" index="2" speed="13.89" length="37.23" shape="186.34,653.45 197.61,653.55 205.37,653.63 213.03,652.94 224.03,650.73"/>
    </edge>
    <edge id=":1.Sindong396-7_13" function="internal">
        <lane id=":1.Sindong396-7_13_0" index="0" speed="12.21" length="34.88" shape="186.34,653.45 197.52,654.70 204.54,658.95 207.68,666.53 207.39,673.74"/>
    </edge>
    <edge id=":1.Sindong396-7_14" function="internal">
        <lane id=":1.Sindong396-7_14_0" index="0" speed="11.27" length="28.94" shape="186.37,656.65 195.84,657.71 201.79,661.31 204.45,667.73 204.23,673.23"/>
    </edge>
    <edge id=":1.Sindong396-7_24" function="internal">
        <lane id=":1.Sindong396-7_24_0" index="0" speed="9.06" length="4.04" shape="196.28,637.85 197.36,633.96"/>
    </edge>
    <edge id=":1.Sindong396-7_25" function="internal">
        <lane id=":1.Sindong396-7_25_0" index="0" speed="12.21" length="4.03" shape="207.39,673.74 207.23,677.77"/>
    </edge>
    <edge id=":1.Sindong396-7_26" function="internal">
        <lane id=":1.Sindong396-7_26_0" index="0" speed="11.27" length="4.03" shape="204.23,673.23 204.08,677.26"/>
    </edge>
    <edge id=":1.Sindong396-7_15" function="internal">
        <lane id=":1.Sindong396-7_15_0" index="0" speed="6.17" length="4.74" shape="191.44,675.20 191.49,672.66 190.67,670.85 190.50,670.74"/>
    </edge>
    <edge id=":1.Sindong396-7_16" function="internal">
        <lane id=":1.Sindong396-7_16_0" index="0" speed="13.89" length="41.79" shape="194.60,675.72 200.53,634.39"/>
        <lane id=":1.Sindong396-7_16_1" index="1" speed="13.89" length="41.79" shape="197.76,676.23 203.70,634.82"/>
    </edge>
    <edge id=":1.Sindong396-7_18" function="internal">
        <lane id=":1.Sindong396-7_18_0" index="0" speed="13.89" length="36.87" shape="197.76,676.23 200.79,665.61 206.05,657.30 213.56,651.30 219.53,649.04"/>
    </edge>
    <edge id=":1.Sindong396-7_19" function="internal">
        <lane id=":1.Sindong396-7_19_0" index="0" speed="13.89" length="33.07" shape="200.92,676.74 203.67,667.08 208.43,659.53 215.22,654.07 220.26,652.16"/>
    </edge>
    <edge id=":1.Sindong396-7_27" function="internal">
        <lane id=":1.Sindong396-7_27_0" index="0" speed="6.17" length="4.32" shape="190.50,670.74 189.01,669.78 186.49,669.44"/>
    </edge>
    <edge id=":1.Sindong396-7_28" function="internal">
        <lane id=":1.Sindong396-7_28_0" index="0" speed="13.89" length="4.03" shape="219.53,649.04 223.30,647.61"/>
    </edge>
    <edge id=":1.Sindong396-7_29" function="internal">
        <lane id=":1.Sindong396-7_29_0" index="0" speed="13.89" length="4.03" shape="220.26,652.16 224.03,650.73"/>
    </edge>
    <edge id=":1.Sindong396-7_c0" function="crossing" crossingEdges="gneE3 -gneE3">
        <lane id=":1.Sindong396-7_c0_0" index="0" allow="pedestrian" speed="1.00" length="28.87" width="4.00" shape="219.53,640.28 226.11,668.39"/>
    </edge>
    <edge id=":1.Sindong396-7_c1" function="crossing" crossingEdges="gneE2 -gneE2">
        <lane id=":1.Sindong396-7_c1_0" index="0" allow="pedestrian" speed="1.00" length="22.54" width="4.00" shape="195.51,635.73 217.85,638.75"/>
    </edge>
    <edge id=":1.Sindong396-7_c2" function="crossing" crossingEdges="gneE1 -gneE1">
        <lane id=":1.Sindong396-7_c2_0" index="0" allow="pedestrian" speed="1.00" length="28.79" width="4.00" shape="188.50,671.02 188.24,642.23"/>
    </edge>
    <edge id=":1.Sindong396-7_c3" function="crossing" crossingEdges="gneE0 -gneE0">
        <lane id=":1.Sindong396-7_c3_0" index="0" allow="pedestrian" speed="1.00" length="22.40" width="4.00" shape="212.29,676.56 190.18,672.97"/>
    </edge>
    <edge id=":1.Sindong396-7_w0" function="walkingarea">
        <lane id=":1.Sindong396-7_w0_0" index="0" allow="pedestrian" speed="1.00" length="32.90" width="3.20" shape="228.05,667.93 227.32,664.82 227.32,664.82 226.59,661.70 226.60,661.70 225.86,658.59 225.87,658.59 225.13,655.47 225.14,655.47 224.40,652.36 224.39,652.29 223.66,649.17 223.66,649.17 222.93,646.05 222.93,646.05 222.21,642.94 222.21,642.94 221.48,639.82 218.11,636.76 214.94,636.34 214.94,636.34 211.77,635.91 211.77,635.91 208.60,635.48 208.60,635.48 205.43,635.06 205.29,635.04 202.12,634.61 202.12,634.61 198.95,634.18 198.95,634.18 195.78,633.75 186.24,642.25 186.27,645.45 186.26,645.45 186.30,648.65 186.29,648.65 186.33,651.85 186.32,651.85 186.36,655.05 186.35,655.05 186.38,658.25 186.38,658.24 186.41,661.44 186.41,661.44 186.44,664.64 186.44,664.64 186.47,667.84 186.47,667.84 186.50,671.04 189.86,674.95 193.02,675.46 193.02,675.46 196.18,675.97 196.18,675.97 199.34,676.49 199.34,676.49 202.50,677.00 202.50,677.00 205.65,677.51 205.65,677.51 208.81,678.02 208.81,678.02 211.97,678.54 223.46,669.21 219.63,670.67 216.57,672.34 214.27,674.21 212.74,676.27"/>
    </edge>
    <edge id=":1.Sindong396-7_w1" function="walkingarea">
        <lane id=":1.Sindong396-7_w1_0" index="0" allow="pedestrian" speed="1.00" length="16.05" width="4.00" shape="224.16,668.85 228.05,667.94 211.97,678.54 212.61,674.59"/>
    </edge>
    <edge id=":1.Sindong396-7_w2" function="walkingarea">
        <lane id=":1.Sindong396-7_w2_0" index="0" allow="pedestrian" speed="1.00" length="2.27" width="4.00" shape="217.58,640.73 218.11,636.76 221.48,639.82 217.58,640.73"/>
    </edge>
    <edge id=":1.Sindong396-7_w3" function="walkingarea">
        <lane id=":1.Sindong396-7_w3_0" index="0" allow="pedestrian" speed="1.00" length="9.75" width="4.00" shape="190.24,642.21 186.24,642.25 195.78,633.75 195.24,637.71"/>
    </edge>
    <edge id=":1.Sindong396-7_w4" function="walkingarea">
        <lane id=":1.Sindong396-7_w4_0" index="0" allow="pedestrian" speed="1.00" length="2.58" width="4.00" shape="190.50,671.00 189.86,674.95 186.50,671.04 190.50,671.00"/>
    </edge>
    <edge id=":10.IKSANfirestation_0" function="internal">
        <lane id=":10.IKSANfirestation_0_0" index="0" speed="13.89" length="32.97" shape="5017.73,380.80 4992.61,359.62"/>
        <lane id=":10.IKSANfirestation_0_1" index="1" speed="13.89" length="32.97" shape="5019.83,378.38 4994.62,357.13"/>
        <lane id=":10.IKSANfirestation_0_2" index="2" speed="13.89" length="32.97" shape="5021.92,375.97 4996.63,354.64"/>
    </edge>
    <edge id=":10.IKSANfirestation_3" function="internal">
        <lane id=":10.IKSANfirestation_3_0" index="0" speed="10.89" length="9.23" shape="5024.02,373.55 5018.56,367.49 5018.16,366.50"/>
    </edge>
    <edge id=":10.IKSANfirestation_4" function="internal">
        <lane id=":10.IKSANfirestation_4_0" index="0" speed="3.68" length="2.39" shape="5024.02,373.55 5023.63,372.13 5023.86,371.25"/>
    </edge>
    <edge id=":10.IKSANfirestation_14" function="internal">
        <lane id=":10.IKSANfirestation_14_0" index="0" speed="10.89" length="18.09" shape="5018.16,366.50 5016.12,361.52 5016.70,355.65 5020.29,349.86"/>
    </edge>
    <edge id=":10.IKSANfirestation_15" function="internal">
        <lane id=":10.IKSANfirestation_15_0" index="0" speed="3.68" length="2.39" shape="5023.86,371.25 5024.71,370.90 5026.17,371.08"/>
    </edge>
    <edge id=":10.IKSANfirestation_5" function="internal">
        <lane id=":10.IKSANfirestation_5_0" index="0" speed="6.48" length="9.03" shape="5029.86,358.37 5028.49,360.44 5028.12,362.44 5028.74,364.38 5030.36,366.25"/>
    </edge>
    <edge id=":10.IKSANfirestation_6" function="internal">
        <lane id=":10.IKSANfirestation_6_0" index="0" speed="7.98" length="14.24" shape="5027.47,356.24 5025.31,359.50 5024.72,362.66 5025.71,365.71 5028.27,368.67"/>
    </edge>
    <edge id=":10.IKSANfirestation_7" function="internal">
        <lane id=":10.IKSANfirestation_7_0" index="0" speed="12.45" length="34.54" shape="5025.07,354.12 5017.81,360.33 5010.32,362.90 5002.59,361.83 4994.62,357.13"/>
    </edge>
    <edge id=":10.IKSANfirestation_8" function="internal">
        <lane id=":10.IKSANfirestation_8_0" index="0" speed="11.55" length="29.55" shape="5022.68,351.99 5016.46,357.32 5010.04,359.54 5003.43,358.65 4996.63,354.64"/>
    </edge>
    <edge id=":10.IKSANfirestation_9" function="internal">
        <lane id=":10.IKSANfirestation_9_0" index="0" speed="6.86" length="9.73" shape="5004.57,344.79 5006.73,346.00 5008.87,346.18 5011.00,345.34 5013.12,343.48"/>
    </edge>
    <edge id=":10.IKSANfirestation_10" function="internal">
        <lane id=":10.IKSANfirestation_10_0" index="0" speed="7.63" length="12.27" shape="5004.57,344.79 5007.82,346.88 5010.72,347.71 5013.29,347.29 5015.51,345.61"/>
    </edge>
    <edge id=":10.IKSANfirestation_11" function="internal">
        <lane id=":10.IKSANfirestation_11_0" index="0" speed="13.89" length="33.44" shape="5004.57,344.79 5030.36,366.25"/>
        <lane id=":10.IKSANfirestation_11_1" index="1" speed="13.89" length="33.44" shape="5002.56,347.28 5028.27,368.67"/>
        <lane id=":10.IKSANfirestation_11_2" index="2" speed="13.89" length="33.44" shape="5000.56,349.77 5026.17,371.08"/>
    </edge>
    <edge id=":10.IKSANfirestation_w0" function="walkingarea">
        <lane id=":10.IKSANfirestation_w0_0" index="0" allow="pedestrian" speed="1.00" length="26.94" width="3.20" shape="5016.67,382.00 5018.78,379.59 5018.77,379.59 5020.88,377.18 5020.87,377.17 5022.98,374.76 5022.97,374.76 5025.08,372.35 5025.12,372.29 5027.22,369.88 5027.22,369.88 5029.31,367.46 5029.31,367.46 5031.41,365.05 5031.05,359.43 5028.66,357.31 5028.66,357.31 5026.27,355.18 5026.27,355.18 5023.88,353.05 5023.88,353.05 5021.49,350.93 5021.49,350.93 5019.10,348.80 5019.10,348.80 5016.71,346.67 5016.71,346.67 5014.32,344.55 5014.32,344.55 5011.92,342.42 5005.57,343.54 5003.58,346.04 5003.56,346.03 5001.57,348.53 5001.55,348.52 4999.56,351.02 4997.63,353.39 4995.62,355.89 4995.62,355.89 4993.61,358.38 4993.61,358.38 4991.61,360.87"/>
    </edge>
    <edge id=":2.sindong830_0" function="internal">
        <lane id=":2.sindong830_0_0" index="0" speed="7.00" length="10.25" shape="739.18,503.22 737.67,500.51 735.86,498.85 733.73,498.24 731.29,498.67"/>
    </edge>
    <edge id=":2.sindong830_1" function="internal">
        <lane id=":2.sindong830_1_0" index="0" speed="13.89" length="34.98" shape="742.13,501.99 738.31,491.59 735.40,481.86 733.20,473.87 731.53,468.67"/>
    </edge>
    <edge id=":2.sindong830_2" function="internal">
        <lane id=":2.sindong830_2_0" index="0" speed="11.80" length="29.68" shape="742.13,501.99 738.80,491.31 738.67,482.92 741.75,476.81 744.54,475.12"/>
    </edge>
    <edge id=":2.sindong830_3" function="internal">
        <lane id=":2.sindong830_3_0" index="0" speed="10.85" length="24.30" shape="745.08,500.76 742.13,491.53 741.80,484.33 744.12,479.17 745.59,478.23"/>
    </edge>
    <edge id=":2.sindong830_17" function="internal">
        <lane id=":2.sindong830_17_0" index="0" speed="11.80" length="4.10" shape="744.54,475.12 748.04,473.00"/>
    </edge>
    <edge id=":2.sindong830_18" function="internal">
        <lane id=":2.sindong830_18_0" index="0" speed="10.85" length="4.12" shape="745.59,478.23 749.07,476.03"/>
    </edge>
    <edge id=":2.sindong830_4" function="internal">
        <lane id=":2.sindong830_4_0" index="0" speed="6.36" length="4.74" shape="754.20,491.18 751.97,492.31 750.69,493.88 750.66,494.09"/>
    </edge>
    <edge id=":2.sindong830_5" function="internal">
        <lane id=":2.sindong830_5_0" index="0" speed="13.89" length="24.26" shape="753.17,488.15 730.19,495.66"/>
        <lane id=":2.sindong830_5_1" index="1" speed="13.89" length="24.26" shape="752.15,485.12 729.08,492.66"/>
        <lane id=":2.sindong830_5_2" index="2" speed="13.89" length="24.26" shape="751.12,482.09 727.98,489.65"/>
    </edge>
    <edge id=":2.sindong830_8" function="internal">
        <lane id=":2.sindong830_8_0" index="0" speed="10.52" length="19.78" shape="750.10,479.06 744.31,479.98 739.29,478.55 735.03,474.78 733.53,472.17"/>
    </edge>
    <edge id=":2.sindong830_19" function="internal">
        <lane id=":2.sindong830_19_0" index="0" speed="6.36" length="4.30" shape="750.66,494.09 750.36,495.87 750.99,498.29"/>
    </edge>
    <edge id=":2.sindong830_20" function="internal">
        <lane id=":2.sindong830_20_0" index="0" speed="10.52" length="4.03" shape="733.53,472.17 731.53,468.67"/>
    </edge>
    <edge id=":2.sindong830_9" function="internal">
        <lane id=":2.sindong830_9_0" index="0" speed="8.23" length="10.16" shape="734.46,467.42 736.20,469.80 738.87,471.02 742.48,471.08 743.12,470.92"/>
    </edge>
    <edge id=":2.sindong830_10" function="internal">
        <lane id=":2.sindong830_10_0" index="0" speed="13.89" length="34.86" shape="734.46,467.42 748.04,499.52"/>
    </edge>
    <edge id=":2.sindong830_11" function="internal">
        <lane id=":2.sindong830_11_0" index="0" speed="10.58" length="26.62" shape="734.46,467.42 736.81,475.24 736.52,481.56 733.57,486.36 727.98,489.65"/>
    </edge>
    <edge id=":2.sindong830_21" function="internal">
        <lane id=":2.sindong830_21_0" index="0" speed="8.23" length="4.01" shape="743.12,470.92 747.02,469.97"/>
    </edge>
    <edge id=":2.sindong830_12" function="internal">
        <lane id=":2.sindong830_12_0" index="0" speed="7.66" length="8.44" shape="723.58,477.64 727.89,475.68 730.66,473.53 730.75,473.36"/>
    </edge>
    <edge id=":2.sindong830_13" function="internal">
        <lane id=":2.sindong830_13_0" index="0" speed="13.89" length="24.58" shape="723.58,477.64 747.02,469.97"/>
        <lane id=":2.sindong830_13_1" index="1" speed="13.89" length="24.58" shape="724.68,480.64 748.04,473.00"/>
        <lane id=":2.sindong830_13_2" index="2" speed="13.89" length="24.58" shape="725.78,483.65 749.07,476.03"/>
    </edge>
    <edge id=":2.sindong830_16" function="internal">
        <lane id=":2.sindong830_16_0" index="0" speed="11.20" length="23.80" shape="726.88,486.65 733.34,485.57 739.01,487.36 743.91,492.01 746.10,496.00"/>
    </edge>
    <edge id=":2.sindong830_22" function="internal">
        <lane id=":2.sindong830_22_0" index="0" speed="7.66" length="4.98" shape="730.75,473.36 731.87,471.19 731.53,468.67"/>
    </edge>
    <edge id=":2.sindong830_23" function="internal">
        <lane id=":2.sindong830_23_0" index="0" speed="11.20" length="4.02" shape="746.10,496.00 748.04,499.52"/>
    </edge>
    <edge id=":2.sindong830_c0" function="crossing" crossingEdges="E63 E58">
        <lane id=":2.sindong830_c0_0" index="0" allow="pedestrian" speed="1.00" length="16.00" width="4.00" shape="751.70,495.83 736.93,501.99"/>
    </edge>
    <edge id=":2.sindong830_c1" function="crossing" crossingEdges="-E54 E54">
        <lane id=":2.sindong830_c1_0" index="0" allow="pedestrian" speed="1.00" length="25.60" width="4.00" shape="744.61,469.09 752.82,493.34"/>
    </edge>
    <edge id=":2.sindong830_c2" function="crossing" crossingEdges="-E60 E60">
        <lane id=":2.sindong830_c2_0" index="0" allow="pedestrian" speed="1.00" length="6.39" width="4.00" shape="730.84,471.14 736.72,468.63"/>
    </edge>
    <edge id=":2.sindong830_w0" function="walkingarea">
        <lane id=":2.sindong830_w0_0" index="0" allow="pedestrian" speed="1.00" length="24.29" width="3.20" shape="737.70,503.84 740.65,502.60 740.65,502.60 743.61,501.37 743.61,501.37 746.56,500.14 746.56,500.14 749.51,498.91 749.51,498.91 752.47,497.67 754.71,492.70 753.69,489.67 753.69,489.67 752.66,486.64 752.66,486.64 751.64,483.61 751.64,483.61 750.61,480.57 750.61,480.57 749.58,477.54 749.58,477.54 748.56,474.51 748.56,474.51 747.53,471.48 747.53,471.48 746.50,468.45 735.93,466.79 732.99,468.05 733.00,468.04 730.06,469.30 723.02,476.14 724.13,479.14 724.13,479.14 725.23,482.14 725.23,482.14 726.33,485.15 726.33,485.15 727.43,488.15 727.43,488.15 728.53,491.16 728.53,491.16 729.64,494.16 729.64,494.16 730.74,497.17 730.74,497.17 731.84,500.17 736.95,502.33 736.11,501.19 735.18,500.40 734.16,499.96 733.05,499.89"/>
    </edge>
    <edge id=":2.sindong830_w1" function="walkingarea">
        <lane id=":2.sindong830_w1_0" index="0" allow="pedestrian" speed="1.00" length="31.45" width="4.00" shape="736.16,500.15 737.70,503.84 730.06,469.30 731.63,472.98"/>
    </edge>
    <edge id=":2.sindong830_w2" function="walkingarea">
        <lane id=":2.sindong830_w2_0" index="0" allow="pedestrian" speed="1.00" length="2.73" width="4.00" shape="750.93,493.98 754.71,492.70 752.47,497.67 750.93,493.98"/>
    </edge>
    <edge id=":2.sindong830_w3" function="walkingarea">
        <lane id=":2.sindong830_w3_0" index="0" allow="pedestrian" speed="1.00" length="7.90" width="4.00" shape="737.51,470.46 735.93,466.79 746.50,468.45 742.72,469.73"/>
    </edge>
    <edge id=":3.sindong120-23_0" function="internal">
        <lane id=":3.sindong120-23_0_0" index="0" speed="6.46" length="4.75" shape="1148.28,359.94 1147.14,357.74 1145.57,356.44 1145.35,356.40"/>
    </edge>
    <edge id=":3.sindong120-23_1" function="internal">
        <lane id=":3.sindong120-23_1_0" index="0" speed="13.89" length="37.78" shape="1151.30,358.89 1138.67,323.29"/>
        <lane id=":3.sindong120-23_1_1" index="1" speed="13.89" length="37.78" shape="1154.33,357.85 1141.69,322.24"/>
    </edge>
    <edge id=":3.sindong120-23_3" function="internal">
        <lane id=":3.sindong120-23_3_0" index="0" speed="11.81" length="26.79" shape="1157.35,356.80 1155.09,347.34 1155.54,339.74 1158.68,334.02 1161.12,332.40"/>
    </edge>
    <edge id=":3.sindong120-23_18" function="internal">
        <lane id=":3.sindong120-23_18_0" index="0" speed="6.46" length="4.29" shape="1145.35,356.40 1143.58,356.06 1141.15,356.59"/>
    </edge>
    <edge id=":3.sindong120-23_19" function="internal">
        <lane id=":3.sindong120-23_19_0" index="0" speed="11.81" length="4.07" shape="1161.12,332.40 1164.52,330.16"/>
    </edge>
    <edge id=":3.sindong120-23_4" function="internal">
        <lane id=":3.sindong120-23_4_0" index="0" speed="8.55" length="11.49" shape="1169.42,342.20 1165.64,344.39 1163.38,347.20 1162.63,350.64"/>
    </edge>
    <edge id=":3.sindong120-23_5" function="internal">
        <lane id=":3.sindong120-23_5_0" index="0" speed="13.89" length="31.43" shape="1169.42,342.20 1140.03,353.59"/>
        <lane id=":3.sindong120-23_5_1" index="1" speed="13.89" length="31.43" shape="1168.21,339.23 1138.91,350.60"/>
        <lane id=":3.sindong120-23_5_2" index="2" speed="13.89" length="31.43" shape="1167.01,336.27 1137.79,347.60"/>
    </edge>
    <edge id=":3.sindong120-23_8" function="internal">
        <lane id=":3.sindong120-23_8_0" index="0" speed="11.30" length="26.62" shape="1165.80,333.30 1157.65,335.36 1150.92,334.20 1145.59,329.83 1143.54,325.83"/>
    </edge>
    <edge id=":3.sindong120-23_20" function="internal">
        <lane id=":3.sindong120-23_20_0" index="0" speed="8.55" length="4.13" shape="1162.63,350.64 1163.40,354.70"/>
    </edge>
    <edge id=":3.sindong120-23_21" function="internal">
        <lane id=":3.sindong120-23_21_0" index="0" speed="11.30" length="4.04" shape="1143.54,325.83 1141.69,322.24"/>
    </edge>
    <edge id=":3.sindong120-23_9" function="internal">
        <lane id=":3.sindong120-23_9_0" index="0" speed="6.40" length="4.74" shape="1153.78,318.04 1154.92,320.25 1156.49,321.53 1156.72,321.57"/>
    </edge>
    <edge id=":3.sindong120-23_10" function="internal">
        <lane id=":3.sindong120-23_10_0" index="0" speed="13.89" length="37.78" shape="1150.76,319.09 1163.40,354.70"/>
        <lane id=":3.sindong120-23_10_1" index="1" speed="13.89" length="37.78" shape="1147.73,320.14 1160.37,355.75"/>
    </edge>
    <edge id=":3.sindong120-23_12" function="internal">
        <lane id=":3.sindong120-23_12_0" index="0" speed="11.64" length="26.58" shape="1144.71,321.19 1147.03,330.75 1146.65,338.33 1143.57,343.95 1141.24,345.42"/>
    </edge>
    <edge id=":3.sindong120-23_22" function="internal">
        <lane id=":3.sindong120-23_22_0" index="0" speed="6.40" length="4.29" shape="1156.72,321.57 1158.49,321.87 1160.91,321.27"/>
    </edge>
    <edge id=":3.sindong120-23_23" function="internal">
        <lane id=":3.sindong120-23_23_0" index="0" speed="11.64" length="4.09" shape="1141.24,345.42 1137.79,347.60"/>
    </edge>
    <edge id=":3.sindong120-23_13" function="internal">
        <lane id=":3.sindong120-23_13_0" index="0" speed="6.90" length="5.92" shape="1132.17,332.55 1134.49,331.25 1135.84,329.45 1136.00,328.45"/>
    </edge>
    <edge id=":3.sindong120-23_14" function="internal">
        <lane id=":3.sindong120-23_14_0" index="0" speed="13.89" length="31.06" shape="1133.29,335.55 1162.12,324.23"/>
        <lane id=":3.sindong120-23_14_1" index="1" speed="13.89" length="31.06" shape="1134.41,338.55 1163.32,327.20"/>
        <lane id=":3.sindong120-23_14_2" index="2" speed="13.89" length="31.06" shape="1135.53,341.54 1164.52,330.16"/>
    </edge>
    <edge id=":3.sindong120-23_17" function="internal">
        <lane id=":3.sindong120-23_17_0" index="0" speed="11.34" length="26.04" shape="1136.65,344.54 1144.72,342.78 1151.36,344.06 1156.58,348.38 1158.52,352.16"/>
    </edge>
    <edge id=":3.sindong120-23_24" function="internal">
        <lane id=":3.sindong120-23_24_0" index="0" speed="6.90" length="4.19" shape="1136.00,328.45 1136.22,327.15 1135.64,324.35"/>
    </edge>
    <edge id=":3.sindong120-23_25" function="internal">
        <lane id=":3.sindong120-23_25_0" index="0" speed="11.34" length="4.04" shape="1158.52,352.16 1160.37,355.75"/>
    </edge>
    <edge id=":3.sindong120-23_c0" function="crossing" crossingEdges="-E31 E31">
        <lane id=":3.sindong120-23_c0_0" index="0" allow="pedestrian" speed="1.00" length="19.20" width="4.00" shape="1164.25,352.28 1146.11,358.58"/>
    </edge>
    <edge id=":3.sindong120-23_c1" function="crossing" crossingEdges="-E30 gneE18">
        <lane id=":3.sindong120-23_c1_0" index="0" allow="pedestrian" speed="1.00" length="25.81" width="4.00" shape="1158.46,320.54 1168.18,344.44"/>
    </edge>
    <edge id=":3.sindong120-23_c2" function="crossing" crossingEdges="-E32 E32">
        <lane id=":3.sindong120-23_c2_0" index="0" allow="pedestrian" speed="1.00" length="22.40" width="4.00" shape="1134.79,326.76 1155.95,319.40"/>
    </edge>
    <edge id=":3.sindong120-23_c3" function="crossing" crossingEdges="-E21 E21">
        <lane id=":3.sindong120-23_c3_0" index="0" allow="pedestrian" speed="1.00" length="28.86" width="4.00" shape="1143.58,357.39 1133.48,330.35"/>
    </edge>
    <edge id=":3.sindong120-23_w0" function="walkingarea">
        <lane id=":3.sindong120-23_w0_0" index="0" allow="pedestrian" speed="1.00" length="28.88" width="3.20" shape="1146.77,360.47 1149.79,359.42 1149.79,359.42 1152.81,358.37 1152.81,358.37 1155.84,357.32 1155.84,357.32 1158.86,356.27 1158.86,356.27 1161.88,355.22 1161.88,355.22 1164.91,354.17 1170.03,343.68 1168.80,340.72 1168.82,340.71 1167.60,337.76 1167.62,337.75 1166.39,334.79 1166.41,334.78 1165.19,331.83 1165.13,331.64 1163.92,328.68 1163.92,328.68 1162.72,325.71 1162.72,325.71 1161.51,322.75 1161.51,322.75 1160.31,319.78 1155.29,317.51 1152.27,318.56 1152.27,318.56 1149.24,319.61 1149.24,319.61 1146.22,320.67 1146.22,320.67 1143.20,321.72 1143.20,321.72 1140.18,322.77 1140.18,322.77 1137.15,323.82 1137.15,323.82 1134.13,324.87 1131.61,331.05 1132.73,334.05 1132.73,334.05 1133.85,337.05 1133.85,337.05 1134.97,340.04 1134.97,340.04 1136.09,343.04 1136.09,343.04 1137.21,346.04 1137.23,346.10 1138.35,349.10 1138.35,349.10 1139.47,352.09 1139.47,352.09 1140.59,355.09 1140.59,355.09 1141.71,358.09 1146.26,359.35 1145.62,358.52 1144.85,357.98 1143.94,357.73 1142.89,357.77"/>
    </edge>
    <edge id=":3.sindong120-23_w1" function="walkingarea">
        <lane id=":3.sindong120-23_w1_0" index="0" allow="pedestrian" speed="1.00" length="2.79" width="4.00" shape="1145.46,356.69 1146.77,360.47 1141.71,358.09 1145.46,356.69"/>
    </edge>
    <edge id=":3.sindong120-23_w2" function="walkingarea">
        <lane id=":3.sindong120-23_w2_0" index="0" allow="pedestrian" speed="1.00" length="8.77" width="4.00" shape="1166.33,345.20 1170.03,343.69 1164.91,354.17 1163.60,350.39"/>
    </edge>
    <edge id=":3.sindong120-23_w3" function="walkingarea">
        <lane id=":3.sindong120-23_w3_0" index="0" allow="pedestrian" speed="1.00" length="2.76" width="4.00" shape="1156.60,321.29 1155.29,317.51 1160.31,319.78 1156.60,321.29"/>
    </edge>
    <edge id=":3.sindong120-23_w4" function="walkingarea">
        <lane id=":3.sindong120-23_w4_0" index="0" allow="pedestrian" speed="1.00" length="3.82" width="4.00" shape="1135.35,329.65 1131.61,331.05 1134.13,324.87 1135.45,328.65"/>
    </edge>
    <edge id=":4.yeongdengdong870_0" function="internal">
        <lane id=":4.yeongdengdong870_0_0" index="0" speed="6.98" length="6.44" shape="1929.35,-73.54 1928.42,-76.96 1926.96,-79.22 1926.78,-79.32"/>
    </edge>
    <edge id=":4.yeongdengdong870_1" function="internal">
        <lane id=":4.yeongdengdong870_1_0" index="0" speed="13.89" length="40.16" shape="1932.51,-74.07 1930.80,-86.52 1929.92,-95.79 1928.85,-104.07 1926.57,-113.53"/>
        <lane id=":4.yeongdengdong870_1_1" index="1" speed="13.89" length="40.16" shape="1935.66,-74.60 1933.94,-87.13 1933.03,-96.53 1931.93,-104.94 1929.63,-114.45"/>
    </edge>
    <edge id=":4.yeongdengdong870_3" function="internal">
        <lane id=":4.yeongdengdong870_3_0" index="0" speed="11.33" length="29.31" shape="1938.82,-75.12 1937.87,-85.14 1939.39,-92.48 1944.25,-96.99 1949.31,-97.82"/>
    </edge>